 %chk=g09.chk
 #p am1
  
 g09 mcmc
  
           0           1
 O  
 H             1 B1 
 H             1 B2            2 A1 
 O             1 B3            2 A2            3 D1            0
 H             4 B4            1 A3            2 D2            0
 H             4 B5            1 A4            2 D3            0
 O             4 B6            1 A5            2 D4            0
 H             7 B7            4 A6            1 D5            0
 H             7 B8            4 A7            1 D6            0
 O             7 B9            4 A8            1 D7            0
 H            10 B10           7 A9            4 D8            0
 H            10 B11           7 A10           4 D9            0
 O             4 B12           1 A11           7 D10           0
 H            13 B13           4 A12           1 D11           0
 H            13 B14           4 A13           1 D12           0
 O            13 B15           4 A14           1 D13           0
 H            16 B16          13 A15           4 D14           0
 H            16 B17          13 A16           4 D15           0
 O             7 B18           4 A17           1 D16           0
 H            19 B19           7 A18           4 D17           0
 H            19 B20           7 A19           4 D18           0
 O            10 B21           7 A20           4 D19           0
 H            22 B22          10 A21           7 D20           0
 H            22 B23          10 A22           7 D21           0
  
 B1   0.9506050    
 B2   0.9473385    
 B3    3.915889    
 B4   0.9798856    
 B5   0.9529090    
 B6    3.030949    
 B7   0.9755573    
 B8   0.9495459    
 B9    3.871222    
 B10  0.9892992    
 B11  0.9955532    
 B12   2.823076    
 B13  0.9381822    
 B14  0.9552853    
 B15   3.058634    
 B16  0.9844230    
 B17  0.9905405    
 B18   4.615875    
 B19  0.9493669    
 B20  0.9720979    
 B21   2.438260    
 B22  0.9702589    
 B23  0.9960196    
 A1    100.9251    
 A2    32.26880    
 A3    95.54946    
 A4    6.440820    
 A5    108.7828    
 A6    23.34078    
 A7    97.95674    
 A8    63.77937    
 A9    118.4443    
 A10   134.4553    
 A11   59.42130    
 A12   176.5495    
 A13   68.28381    
 A14   64.91862    
 A15   99.62150    
 A16   7.309554    
 A17   38.23650    
 A18   72.08665    
 A19   94.37939    
 A20   89.30251    
 A21   124.1533    
 A22   112.8688    
 D1   -8.774481    
 D2    88.66719    
 D3   -11.38183    
 D4   -3.131517    
 D5   -161.6455    
 D6    112.3303    
 D7    99.59466    
 D8   -166.4339    
 D9    23.29905    
 D10  -40.82568    
 D11  -101.5319    
 D12   171.3226    
 D13  -52.48980    
 D14   138.5571    
 D15  -4.708887    
 D16   51.52035    
 D17   102.1303    
 D18  -154.1395    
 D19  -94.58232    
 D20  -10.27612    
 D21  -137.2267    
  
