 %chk=g09.chk
 #p opt pw91pw91/3-21g*
  
 g09 mcmc
  
 0  1
S           -1.0039370     0.4330709     0.0000000
O            0.2435120     0.4821239    -1.0136720
H            0.4532700    -0.4236231    -1.2835571
O           -2.2513859     0.3840179    -1.0136720
O           -1.0039370     1.6985099     0.6639730
O           -1.0039370    -0.8323681     0.6639730
H           -2.4611440     1.2897649    -1.2835571
S            2.9921260     2.5984251    -0.1632460
O            4.2395749     2.6474781    -1.1769180
H            4.4493332     1.7417312    -1.4468030
O            1.7446769     2.5493722    -1.1769180
O            2.9921260     3.8638642     0.5007270
O            2.9921260     1.3329862     0.5007270
H            1.5349190     3.4551191    -1.4468030
S            4.6850395    -2.8543308    -0.2448689
O            5.9324884    -2.8052776    -1.2585409
H            6.1422462    -3.7110248    -1.5284259
O            3.4375904    -2.9033837    -1.2585409
O            4.6850395    -1.5888917     0.4191041
O            4.6850395    -4.1197696     0.4191041
H            3.2278323    -1.9976367    -1.5284259
S           -0.4496700    -4.5692439    -1.3243018
O            0.7977790    -4.5201907    -2.3379738
H            1.0075370    -5.4259377    -2.6078589
O           -1.6971190    -4.6182966    -2.3379738
O           -0.4496700    -3.3038049    -0.6603288
O           -0.4496700    -5.8346829    -0.6603288
H           -1.9068770    -3.7125497    -2.6078589
  
